Version 4
SHEET 1 2500 1444
WIRE 1760 1024 1376 1024
WIRE 2064 1024 1856 1024
WIRE 1376 1056 1376 1024
WIRE 2080 1072 1840 1072
WIRE 1552 1104 1472 1104
WIRE 1936 1104 1552 1104
WIRE 2064 1104 2064 1024
WIRE 2064 1104 2032 1104
WIRE 2112 1104 2064 1104
WIRE 2240 1104 2112 1104
WIRE 2336 1104 2240 1104
WIRE 2336 1120 2336 1104
WIRE 1472 1136 1472 1104
WIRE 2240 1136 2240 1104
WIRE 1376 1168 1376 1136
WIRE 2112 1184 2112 1104
WIRE 1472 1216 1472 1200
WIRE 1552 1216 1552 1104
WIRE 1680 1216 1552 1216
WIRE 2064 1216 2064 1104
WIRE 2064 1216 1936 1216
WIRE 2336 1216 2336 1200
WIRE 1552 1232 1552 1216
WIRE 2240 1232 2240 1200
WIRE 1680 1296 1648 1296
WIRE 2016 1296 2016 1152
WIRE 2016 1296 1936 1296
WIRE 1552 1328 1552 1312
WIRE 2240 1328 2240 1312
WIRE 1680 1376 1648 1376
WIRE 2080 1376 2080 1072
WIRE 2080 1376 1936 1376
WIRE 2112 1376 2112 1264
WIRE 2112 1376 2080 1376
FLAG 1648 1376 0
FLAG 1648 1296 0
FLAG 2240 1328 0
FLAG 2336 1216 0
FLAG 1552 1328 0
FLAG 1376 1168 0
FLAG 2336 1104 OUT
FLAG 1472 1216 0
SYMBOL POWERPRODUCTS\\LTC4412 1808 1296 R0
SYMATTR InstName U1
SYMBOL PMOS 1936 1152 R270
WINDOW 0 90 48 VCenter 2
WINDOW 3 63 45 VCenter 2
SYMATTR InstName Q1
SYMATTR Value FDC638P
SYMBOL RES 2096 1168 R0
SYMATTR InstName R1
SYMATTR Value 470K
SYMBOL cap 2224 1136 R0
SYMATTR InstName C1
SYMATTR Value 10µ
SYMBOL res 2320 1104 R0
SYMATTR InstName Rload
SYMATTR Value 100
SYMBOL VOLTAGE 1552 1216 R0
SYMATTR InstName V1
SYMATTR Value 5
SYMBOL voltage 1376 1040 R0
WINDOW 0 14 10 Left 2
WINDOW 3 -2 -33 Left 2
WINDOW 123 0 0 Left 2
WINDOW 39 0 0 Left 2
SYMATTR InstName V2
SYMATTR Value PULSE(0 12 0.5 100u 100u 200m)
SYMBOL PMOS 1760 1072 R270
WINDOW 0 90 48 VCenter 2
WINDOW 3 63 45 VCenter 2
SYMATTR InstName Q2
SYMATTR Value FDC638P
SYMBOL cap 1456 1136 R0
SYMATTR InstName C2
SYMATTR Value 1µ
SYMBOL res 2224 1216 R0
SYMATTR InstName Cdamp
SYMATTR Value 2
TEXT 2176 1368 Left 2 !.tran 1
